
 &time_control
 run_days                            = 0,
 run_hours                           = 72,
 run_minutes                         = 0,
 run_seconds                         = 0,
 start_year                          = 2016, 2016, 2016,
 start_month                         = 07,   07,   07,
 start_day                           = 31,   31,   31,
 start_hour                          = 00,   00,   00,
 start_minute                        = 00,   00,   00,
 start_second                        = 00,   00,   00,
 end_year                            = 2016, 2016, 2016,
 end_month                           = 08,   08,   08,
 end_day                             = 03,   03,   03,
 end_hour                            = 06,   06,   06,
 end_minute                          = 00,   00,   00,
 end_second                          = 00,   00,   00,
 interval_seconds                    = 10800,
 input_from_file                     = .true.,.true.,.true.,
 history_interval                    = 60, 60, 60,
 frames_per_outfile                  = 72, 72, 72,
 restart                             = .false.,
 write_hist_at_0h_rst                = .true.,
 restart_interval                    = 1440,
 io_form_history                     = 2,
 io_form_restart                     = 2,
 io_form_input                       = 2,
 io_form_boundary                    = 2,
 !auxinput6_inname                    = 'wrfbiochemi_d<domain>',
 !auxinput7_inname                    = 'wrffirechemi_d<domain>',
 !auxinput8_inname                    = 'wrfchemi_gocart_bg_d<domain>',
 !auxinput12_inname                   = 'wrf_chem_input',
 !auxinput13_inname                   = 'wrfchemv_d<domain>',
 !auxinput5_interval_m                = 60.,60.,60., 
 ! auxinput6_interval_h                = 24 ,24 ,24,
 !auxinput7_interval_m                = 14400,14400,14400,
 !auxinput8_interval_m                = 14400,14400,14400, 
 !auxinput13_interval_m               = 14400, 14400,14400,
 !io_form_auxinput5                   = 2,
 !io_form_auxinput6                   = 2,
 !io_form_auxinput12                  = 2,
 !frames_per_auxinput6                 = 1,1,1,
 debug_level                         = 0,
 auxinput1_inname                    = "met_em.d<domain>.<date>",
/

 &dfi_control
/

 &domains
 time_step                           = 60, !change from 90 to 60 for stability
 time_step_fract_num                 = 0,
 time_step_fract_den                 = 1,
 max_dom                             = 3,
 e_we                                = 71,    91,   130,
 e_sn                                = 99,    103,  142,
 e_vert                              = 30,    30,    30,
 num_metgrid_levels                  = 32,
 num_metgrid_soil_levels             = 4,
 dx                                  = 18000,  6000,  2000,
 dy                                  = 18000,  6000,  2000,
 grid_id                             = 1,     2,     3,
 parent_id                           = 1,     1,     2,
 i_parent_start                      = 1,     21,    27,
 j_parent_start                      = 1,     33,    24,
 parent_grid_ratio                   = 1,     3,     3,
 parent_time_step_ratio              = 1,     3,     3,
 p_top_requested                     = 10000,
 feedback                            = 1,
 smooth_option                       = 0,
 zap_close_levels                    = 50,
 interp_type                         = 1,
 t_extrap_type                       = 2,
 force_sfc_in_vinterp                = 0,
 use_levels_below_ground             = .true.
 use_surface                         = .true.
 lagrange_order                      = 1
 sfcp_to_sfcp                        = .true.
 /
 
 &physics
 mp_physics                          = 2,     2,     2, 
 !progn                               = 1,     1,     1,
 ra_lw_physics                       = 1,     1,     1,
 ra_sw_physics                       = 2,     2,     2,
 ghg_input = 0,  !added by haohu
 radt                                = 15,    15,    15,
 sf_sfclay_physics                   = 1,     1,     1,
 sf_surface_physics                  = 2,     2,     2,
 bl_pbl_physics                      = 1,     1,     1,
 bldt                                = 0,     0,     0,
 cu_physics                          = 5,     5,     5,
 cu_diag                             = 1,     1,     1,
 cudt                                = 5,     5,     5,
 ishallow                            = 0,
 isfflx                              = 1,
 ifsnow                              = 1,
 icloud                              = 1,
 surface_input_source                = 1,
 num_soil_layers                     = 4,
 sf_urban_physics                    = 0,     0,     1, !change to 0,0,1 according to pouya?
 mp_zero_out                         = 2,
 mp_zero_out_thresh                  = 1.e-12
 maxiens                             = 1,
 maxens                              = 3,
 maxens2                             = 3,
 maxens3                             = 16,
 ensdim                              = 144,
 num_land_cat                        = 33,  !changed by hao
 usemonalb                           = .true.
 rdlai2d                             = .true. !change according to pouya
 cu_rad_feedback                     = .true., !yun add

/

 &fdda
 /

 &dynamics
 rk_ord                              = 3,
 w_damping                           = 1,
 diff_opt                            = 1,
 km_opt                              = 4,
 diff_6th_opt                        = 0,
 diff_6th_factor                     = 0.12,
 base_temp                           = 290.
 damp_opt                            = 0,
 zdamp                               = 5000.,
 dampcoef                            = 0.02,
 khdif                               = 0,
 kvdif                               = 0,
 non_hydrostatic                     = .true.,
 moist_adv_opt                       = 1,
 scalar_adv_opt                      = 1,
 chem_adv_opt                        = 1,
 tke_adv_opt                         = 1,
 time_step_sound                     = 4,
 h_mom_adv_order                     = 5,
 v_mom_adv_order                     = 3,
 h_sca_adv_order                     = 5,
 v_sca_adv_order                     = 3,

!added for AHF 
 AH_choose                           = 0,   0,   1,  
 AHratio                             = 0,   0,   1,
 AH_grid                             = 1,   1,   3,
 /

 &bdy_control
 spec_bdy_width                      = 5,
 spec_zone                           = 1,
 relax_zone                          = 4,
 specified                           = .true., .false.,.false.,
 nested                              = .false.,.true.,.true., 
 /

 &grib2
 /

 &namelist_quilt
 nio_tasks_per_group = 0,
 nio_groups = 1,
 /

 &chem
 kemit                               = 11, !yun change
 chem_opt                            = 0 , 0 , 0 ,
 !chem_opt                            = 108 , 108 , 108 ,
 bioemdt                             = 30, 30, 30,
 photdt                              = 30, 30, 30,
 chemdt                              = 0, 0, 0, !yun change from 1.5,0.5,0.15
 io_style_emissions                  = 2, !yun change
 emiss_opt                           = 0, 0, 0, !yun change
 !emiss_opt                           = 3, 3, 3, !yun change
 emiss_inpt_opt                      = 1, 1, 1,
 emiss_opt_vol                       = 0, 0, 0,
 chem_in_opt                         = 0, 0, 0, !change 0,0,0 to 1,1,1 for restart run
 phot_opt                            = 0, 0, 0, 
 !phot_opt                            = 1, 1, 1, 
 gas_drydep_opt                      = 1, 1, 1,
 aer_drydep_opt                      = 1, 1, 1, !yun change 311,1,1 to 311,311,311 311 doesn't seem to work with MADE/VBS as mentioned in module_aer_drydep.F can have a try
 bio_emiss_opt                       = 0, 0, 0, !yun change 1,1,1 to 3,3,3 (MEGAN)
 !bio_emiss_opt                       = 3, 3, 3, !yun change 1,1,1 to 3,3,3 (MEGAN)
 ne_area                             = 200,
 dust_opt                            = 0,
 dmsemis_opt                         = 0,
 seas_opt                            = 0,
 !seas_opt                            = 2,
 gas_bc_opt                          = 1, 1, 1,
 gas_ic_opt                          = 1, 1, 1,
 aer_bc_opt                          = 1, 1, 1,
 aer_ic_opt                          = 1, 1, 1,
 gaschem_onoff                       = 1, 1, 1,
 aerchem_onoff                       = 1, 1, 1,
 wetscav_onoff                       = 0, 0, 0,
 cldchem_onoff                       = 0, 0, 0, 
 vertmix_onoff                       = 1, 1, 1,
 chem_conv_tr                        = 1, 1, 1,
 conv_tr_wetscav                     = 1, 1, 1,
 biomass_burn_opt                    = 0, 0, 0,
 plumerisefire_frq                   = 0, 0, 0,
 aer_ra_feedback                     = 0, 0, 0,
 aer_op_opt                          = 1, 1, 1,
 opt_pars_out                        = 1,
 !have_bcs_chem                       = .true., .true.,.true., !change to have chemistry boundary from global modeling
 have_bcs_chem                       = .false., .true.,.true., !change according to ncar
 chemdiag                            = 0, 0, 0,
 !chemdiag                            = 0, 0, 1,
 diagnostic_chem                     = 1, 1, 1,

/
